12

C          0.00000        0.00000        0.00000
C          0.00000        1.00000        0.00000
C          0.00000        2.00000        0.00000
C          0.00000        3.00000        0.00000
C         -0.50000        3.86600        0.00000
C          0.35000        4.39270        0.00000
C          1.35000        4.39270        0.00000
C          2.20000        3.86600        0.00000
C          1.70000        3.00000        0.00000
C          1.70000        2.00000        0.00000
C          1.70000        1.00000        0.00000
C          1.70000        0.00000        0.00000
